LAMMPS (7 Aug 2019)
#Binary Glass from Melt-Quench method

#------------------------Initialization----------------------------------------#
units           lj
dimension       3
processors      * * *
boundary        p p p
variable	N equal 100
variable	L equal (N/1.2)^(1/3)

variable	cool_run equal 195000	#195000 steps corresponds to 3.33e-3 cooling_rate

#--------------------------Read data-------------------------------------------#
atom_style	atomic
read_data      	AB100.dat
  orthogonal box = (0 0 0) to (4.3679 4.3679 4.3679)
  reading atoms ...
  100 atoms

#--------------------------Potential-------------------------------------------#
pair_style	lj/cut 2.5
pair_coeff	1 1 1.0 1.0 2.5		#e_AA=1.0 , sigma_AA=1.0, rc_AA=2.5*e_AA=2.5
pair_coeff	1 2 1.5 0.8 2.0		#e_AB=1.5 , sigma_AB=0.8, rc_AB=2.5*e_AB=2.0
pair_coeff	2 2 0.5 0.88 2.2	#e_AB=0.5 , sigma_BB=0.88, rc_BB=2.5*e_BB=2.2

neighbor        2.0 bin
neigh_modify    every 1 check yes
timestep        0.003			#dt

#---------------------------Outputs--------------------------------------------#
thermo          1000
thermo_style    custom step temp pe press lx ly lz density

#----------------------------Mix-----------------------------------------------#

velocity        all create 2.0 5812775 dist gaussian
minimize	1.0e-10 1.0e-10 10000 100000
  update every 1 steps, delay 0 steps, check yes
Step Temp PotEng Press Lx Ly Lz Density
0            2 7.4681728e+08 3.5847431e+09    4.3679023    4.3679023    4.3679023          1.2
Loop time of 0.0818498 on 1 procs for 98 steps with 100 atoms

Minimization stats:
  Stopping criterion = linesearch alpha is zero
  Energy initial, next-to-last, final =
  Force two-norm initial, final = 1.05399e+13 6.12036
  Force max component initial, final = 5.95978e+12 2.81099
  Final line search alpha, max atom move = 2.35058e-08 6.60745e-08
  Iterations, force evaluations = 98 248

fix             1 all nvt temp 2.0 2.0 0.3
run             100000
Step Temp PotEng Press Lx Ly Lz Density
98            2   -7.9001057    2.8596976    4.3679023    4.3679023    4.3679023          1.2
Averages over the last 51 of 102 rows, steps 51000 to 100098:
Temp PotEng Press Lx Ly Lz Density
2.00518 -5.2015 19.3785 4.3679 4.3679 4.3679 1.2
Loop time of 30.3747 on 1 procs for 100000 steps with 100 atoms

unfix           1

write_restart   liq2.rest
write_data      liq2.dat

#----------------------------Cooling-------------------------------------------#
dump            2 all custom 100 Data\md.*.lammpstrj id type x y z
fix             1 all nvt temp 2.0 0.05 0.3
run             195000
Step Temp PotEng Press Lx Ly Lz Density
100098    2.0562181   -5.0601985    20.251566    4.3679023    4.3679023    4.3679023          1.2
Averages over the last 99 of 197 rows, steps 198000 to 295098:
Temp PotEng Press Lx Ly Lz Density
0.525358 -7.3417 4.63676 4.3679 4.3679 4.3679 1.2
Loop time of 82.1463 on 1 procs for 195000 steps with 100 atoms

unfix           1
undump          2

# relax
fix             1 all nvt temp 0.05 0.05 0.3
run             100000
Step Temp PotEng Press Lx Ly Lz Density
295098  0.049971896   -8.1061249  -0.51894574    4.3679023    4.3679023    4.3679023          1.2
Averages over the last 51 of 102 rows, steps 346000 to 395098:
Temp PotEng Press Lx Ly Lz Density
0.0501359 -8.10313 -0.483635 4.3679 4.3679 4.3679 1.2
Loop time of 39.1044 on 1 procs for 100000 steps with 100 atoms

unfix           1

#------------------------Statistical average-----------------------------------#
dump            2 all custom 1000 md.lammpstrj id type x y z
fix             1 all nvt temp 0.05 0.05 0.3
run             10000
Step Temp PotEng Press Lx Ly Lz Density
395098  0.047212389   -8.1032258  -0.58233733    4.3679023    4.3679023    4.3679023          1.2
Averages over the last 6 of 12 rows, steps 401000 to 405098:
Temp PotEng Press Lx Ly Lz Density
0.0508221 -8.10642 -0.478972 4.3679 4.3679 4.3679 1.2
Loop time of 4.36498 on 1 procs for 10000 steps with 100 atoms

unfix           1
undump          2

write_restart   glass.rest
write_data      glass.dat
