LAMMPS (7 Aug 2019)
# bulk Si via Stillinger-Weber

units		metal
atom_style	atomic
newton      on
lattice		diamond 5.431
Lattice spacing in x,y,z = 5.431 5.431 5.431
region		box block 0 2 0 2 0 2
create_box	1 box
Created orthogonal box = (0 0 0) to (10.862 10.862 10.862)
create_atoms	1 box
Created 64 atoms
timestep	0.001

pair_style	sw
pair_coeff	* * Si.sw Si
mass            1 28.06

velocity	all create 3500.0 376847 loop geom
dump            2 all custom 100 md_min.lammpstrj id type mass x y z vx vy vz fx fy fz
minimize	    1.0e-10 1.0e-10 10000 100000
  update every 1 steps, delay 0 steps, check yes
Step Temp E_pair E_mol TotEng Press
0         3500    -277.5424            0   -249.04054    23727.297
Loop time of 0 on 1 procs for 1 steps with 64 atoms

Minimization stats:
  Stopping criterion = energy tolerance
  Energy initial, next-to-last, final =
  Force two-norm initial, final = 1.18787e-13 1.19924e-13
  Force max component initial, final = 1.67504e-14 1.73562e-14
  Final line search alpha, max atom move = 1 1.73562e-14
  Iterations, force evaluations = 1 2

undump          2

fix             1 all npt temp 3500 3500 0.3 iso 0.0 0.0 1000
dump            2 all custom 1000 md_npt.lammpstrj id type mass x y z vx vy vz fx fy fz
run             100000
Step Temp E_pair E_mol TotEng Press Volume
1         3500    -277.5424            0   -249.04054    23727.297    1281.5318
Loop time of 28.5692 on 1 procs for 100000 steps with 64 atoms

unfix           1
undump          2

neighbor	1.0 bin
neigh_modify    delay 5 every 1

reset_timestep 0
fix		1 all nve
thermo      100
dump            2 all custom 1 md_nve.lammpstrj id type mass x y z vx vy vz fx fy fz
run		10000
Step Temp E_pair E_mol TotEng Press
0    3046.8348   -224.48085            0   -199.66929   -28145.687
Averages over the last 51 of 101 rows, steps 5000 to 10000:
Temp E_pair E_mol TotEng Press
3075.09 -224.715 0 -199.673 -7079.08
Loop time of 6.47678 on 1 procs for 10000 steps with 64 atoms

unfix   1
undump   2
